*SPEF "IEEE 1481.1999"
*DESIGN "processor_9_bits"
*DATE "18:05:33 Wednesday January 01, 2025"
*VENDOR "unknown"
*PROGRAM "qrouter"
*VERSION "unknown"
*DESIGN_FLOW "qflow"
*DIVIDER /
*DELIMITER :
*BUS_DELIMITER <>
*T_UNIT 1 PS
*C_UNIT 1 FF
*R_UNIT 1 OHM
*L_UNIT 1 HENRY

*NAME_MAP
*1 clock
*2 _54_
*3 _44_
*4 _45_
*5 _43_
*6 _53_
*7 _46_
*8 Tcycle_Q[0]
*9 _43_
*10 _36_
*11 _31_
*12 _39_
*13 _23_
*14 I[1]
*15 _53_
*16 _35_
*17 _47_
*18 _25_
*19 _26_
*20 aResetn
*21 _39_
*22 _37_
*23 _30_
*24 _41_
*25 IRin
*26 _34_
*27 _49_
*28 _48_
*29 _51_
*30 _52_
*31 Tcycle_Q[3]
*32 _46_
*33 _33_
*34 _24_
*35 _23_
*36 Tcycle_Q[1]
*37 _44_
*38 _33_
*39 _23_
*40 _41_
*41 Tcycle_Q[2]
*42 _45_
*43 _28_
*44 _34_
*45 _37_
*46 _5_
*47 _24_
*48 _30_
*49 _25_
*50 I[2]
*51 _54_
*52 _50_
*53 _25_
*54 _6_
*55 _25_
*56 _26_
*57 _38_
*58 _7_
*59 _26_
*60 _27_
*61 _32_
*62 Run
*63 _29_
*64 _39_
*65 _12_
*66 _33_
*67 _34_
*68 _36_
*69 _4_
*70 _23_
*71 _26_
*72 _17_
*73 _27_
*74 _42_
*75 _8_
*76 _28_
*77 _32_
*78 _9_
*79 _29_
*80 _31_
*81 _10_
*82 _30_
*83 _31_
*84 _11_
*85 _31_
*86 _32_
*87 _3_
*88 _32_
*89 _43_
*90 _13_
*91 _35_
*92 _36_
*93 _14_
*94 _36_
*95 _38_
*96 _15_
*97 _37_
*98 _38_
*99 _0_
*100 _38_
*101 _44_
*102 _16_
*103 _39_
*104 _40_
*105 _1_
*106 _40_
*107 _45_
*108 _2_
*109 _41_
*110 _46_
*111 Done
*112 _42_
*113 _19_
*114 _47_
*115 _49_
*116 _20_
*117 _48_
*118 _49_
*119 _18_[1]
*120 _49_
*121 _53_
*122 _21_
*123 _50_
*124 _52_
*125 _22_
*126 _51_
*127 _52_
*128 _18_[2]
*129 _52_
*130 _54_

*PORTS
*1 I
*20 I
*62 I
*111 O

*D_NET *1 0.0043524
*CONN
*P *1 O
*I *2:CLK I *L 0
*I *3:CLK I *L 0
*I *4:CLK I *L 0
*I *5:CLK I *L 0
*I *6:CLK I *L 0
*I *7:CLK I *L 0
*CAP
1 1_1 0.00027
2 1_2 8.64e-05
3 1_3 0.0005616
4 1_4 0
5 1_5 0.001836
6 1_6 0.0003456
7 1_7 4.32e-05
8 1_8 0.000864
9 1_9 0.0003456
*RES
1 *1 1_1 0.6
2 1_1 1_2 0.6
3 1_2 *2:CLK 0
4 1_1 1_3 3.9
5 1_3 1_4 0
6 1_4 *3:CLK 0
7 1_4 1_5 4.08
8 1_5 1_6 2.4
9 1_6 *4:CLK 0
10 1_5 1_7 0.3
11 1_7 *5:CLK 0
12 1_7 1_8 4.98
13 1_8 *6:CLK 0
14 1_4 1_9 2.4
15 1_9 *7:CLK 0
*END
*D_NET *8 0.00219744
*CONN
*I *9:Q O *D _43
*I *10:A I *L 0
*I *11:A I *L 0
*I *12:A I *L 0
*I *13:B I *L 0
*CAP
1 8_1 0.0003528
2 8_2 0.00019872
3 8_3 0.0004104
4 8_4 0
5 8_5 0.000252
6 8_6 8.64e-05
7 8_7 0.00089712
*RES
1 *9:Q 8_1 1.6
2 8_1 8_2 1.38
3 8_2 *10:A 0
4 8_1 8_3 2.34
5 8_3 8_4 0
6 8_4 *11:A 0
7 8_3 8_5 0.56
8 8_5 8_6 0.6
9 8_6 *12:A 0
10 8_5 8_7 4.36
11 8_7 *13:B 0
*END
*D_NET *14 0.00143712
*CONN
*I *15:Q O *D _53
*I *16:A I *L 0
*I *17:A I *L 0
*I *18:B I *L 0
*I *19:A I *L 0
*CAP
1 14_1 0.0002376
2 14_2 0
3 14_3 0.000216
4 14_4 0
5 14_5 0.0002664
6 14_6 4.32e-05
7 14_7 0.00067392
*RES
1 *15:Q 14_1 1.14
2 14_1 14_2 0
3 14_2 *16:A 0
4 14_2 14_3 0.48
5 14_3 14_4 0
6 14_4 *17:A 0
7 14_3 14_5 1
8 14_5 14_6 0.3
9 14_6 *18:B 0
10 14_6 14_7 4.68
11 14_7 *19:A 0
*END
*D_NET *20 0.00156564
*CONN
*P *20 O
*I *21:B I *L 0
*I *22:A I *L 0
*I *23:A I *L 0
*I *24:B I *L 0
*CAP
1 20_1 0.0002592
2 20_2 0.0005112
3 20_3 0.0003096
4 20_4 0.0002178
5 20_5 0.00013824
6 20_6 0.0001296
*RES
1 *20 20_1 1.8
2 20_1 20_2 1.34
3 20_2 20_3 1.3
4 20_3 *21:B 0
5 20_2 20_4 1.3
6 20_4 *22:A 0
7 20_4 20_5 0.48
8 20_5 *23:A 0
9 20_1 20_6 0.9
10 20_6 *24:B 0
*END
*D_NET *25 0.00168336
*CONN
*I *26:Y O *D _34
*I *27:A I *L 0
*I *28:A I *L 0
*I *29:A I *L 0
*I *30:A I *L 0
*CAP
1 25_1 0.00078192
2 25_2 8.64e-05
3 25_3 0.000288
4 25_4 8.64e-05
5 25_5 0.0003024
6 25_6 0.00013824
*RES
1 *26:Y 25_1 4.92
2 25_1 25_2 0.6
3 25_2 *27:A 0
4 25_1 25_3 0.64
5 25_3 25_4 0.6
6 25_4 *28:A 0
7 25_3 25_5 1.08
8 25_5 *29:A 0
9 25_5 25_6 0.48
10 25_6 *30:A 0
*END
*D_NET *31 0.00116496
*CONN
*I *32:Q O *D _46
*I *33:A I *L 0
*I *34:A I *L 0
*I *35:A I *L 0
*CAP
1 31_1 0.00041472
2 31_2 8.64e-05
3 31_3 0.0002232
4 31_4 0.000216
5 31_5 0.00022464
*RES
1 *32:Q 31_1 2.88
2 31_1 31_2 0.6
3 31_2 *33:A 0
4 31_1 31_3 0.7
5 31_3 31_4 1.5
6 31_4 *34:A 0
7 31_3 31_5 1.08
8 31_5 *35:A 0
*END
*D_NET *36 0.0013752
*CONN
*I *37:Q O *D _44
*I *38:B I *L 0
*I *39:C I *L 0
*I *40:A I *L 0
*CAP
1 36_1 0.0001944
2 36_2 0.0001296
3 36_3 0.0002304
4 36_4 0.00031968
5 36_5 0.00050112
*RES
1 *37:Q 36_1 0.84
2 36_1 36_2 0.9
3 36_2 *38:B 0
4 36_1 36_3 0.92
5 36_3 36_4 1.26
6 36_4 *39:C 0
7 36_3 36_5 3.48
8 36_5 *40:A 0
*END
*D_NET *41 0.00154944
*CONN
*I *42:Q O *D _45
*I *43:A I *L 0
*I *44:A I *L 0
*I *45:B I *L 0
*CAP
1 41_1 0.00019872
2 41_2 0.00041472
3 41_3 0.000252
4 41_4 0.0002592
5 41_5 0.0004248
*RES
1 *42:Q 41_1 1.38
2 41_1 41_2 2.88
3 41_2 *43:A 0
4 41_1 41_3 0.56
5 41_3 41_4 1.8
6 41_4 *44:A 0
7 41_3 41_5 1.76
8 41_5 *45:B 0
*END
*D_NET *46 0.00157392
*CONN
*I *47:Y O *D _24
*I *48:B I *L 0
*I *49:A I *L 0
*CAP
1 46_1 0.000468
2 46_2 0.0002592
3 46_3 0.00084672
*RES
1 *47:Y 46_1 2.06
2 46_1 46_2 1.8
3 46_2 *48:B 0
4 46_1 46_3 5.88
5 46_3 *49:A 0
*END
*D_NET *50 0.00124848
*CONN
*I *51:Q O *D _54
*I *52:A I *L 0
*I *53:C I *L 0
*CAP
1 50_1 0.00026784
2 50_2 0
3 50_3 0.00098064
*RES
1 *51:Q 50_1 1.38
2 50_1 50_2 0
3 50_2 *52:A 0
4 50_2 50_3 4.26
5 50_3 *53:C 0
*END
*D_NET *54 0.000792
*CONN
*I *55:Y O *D _25
*I *56:C I *L 0
*I *57:B I *L 0
*CAP
1 54_1 0.0004752
2 54_2 4.32e-05
3 54_3 0.0002736
*RES
1 *55:Y 54_1 3.3
2 54_1 54_2 0.3
3 54_2 *56:C 0
4 54_2 54_3 1.22
5 54_3 *57:B 0
*END
*D_NET *58 0.00245412
*CONN
*I *59:Y O *D _26
*I *60:A I *L 0
*I *61:B I *L 0
*CAP
1 58_1 0.00054612
2 58_2 0.000828
3 58_3 0.00108
*RES
1 *59:Y 58_1 3.58
2 58_1 58_2 4.9
3 58_2 *60:A 0
4 58_1 58_3 3.42
5 58_3 *61:B 0
*END
*D_NET *62 0.00087264
*CONN
*P *62 O
*I *63:A I *L 0
*I *64:C I *L 0
*CAP
1 62_1 0.00061344
2 62_2 0.0002592
*RES
1 *62 62_1 4.26
2 62_1 *63:A 0
3 62_1 62_2 1.8
4 62_2 *64:C 0
*END
*D_NET *65 0.0013824
*CONN
*I *66:Y O *D _33
*I *67:B I *L 0
*I *68:B I *L 0
*CAP
1 65_1 0.0008208
2 65_2 0.0001728
3 65_3 0.0003888
*RES
1 *66:Y 65_1 2.64
2 65_1 65_2 1.2
3 65_2 *67:B 0
4 65_1 65_3 1.68
5 65_3 *68:B 0
*END
*D_NET *69 0.0005184
*CONN
*I *70:Y O *D _23
*I *71:B I *L 0
*CAP
1 69_1 0.0005184
*RES
1 *70:Y 69_1 1.8
2 69_1 *71:B 0
*END
*D_NET *72 0.00015552
*CONN
*I *73:Y O *D _27
*I *74:A I *L 0
*CAP
1 72_1 0.00015552
*RES
1 *73:Y 72_1 1.08
2 72_1 *74:A 0
*END
*D_NET *75 0.000972
*CONN
*I *76:Y O *D _28
*I *77:A I *L 0
*CAP
1 75_1 0.000972
*RES
1 *76:Y 75_1 5.22
2 75_1 *77:A 0
*END
*D_NET *78 0.00020736
*CONN
*I *79:Y O *D _29
*I *80:B I *L 0
*CAP
1 78_1 0.00020736
*RES
1 *79:Y 78_1 0.72
2 78_1 *80:B 0
*END
*D_NET *81 0.00098784
*CONN
*I *82:Y O *D _30
*I *83:C I *L 0
*CAP
1 81_1 0.00098784
*RES
1 *82:Y 81_1 4
2 81_1 *83:C 0
*END
*D_NET *84 0.00154944
*CONN
*I *85:Y O *D _31
*I *86:C I *L 0
*CAP
1 84_1 0.00154944
*RES
1 *85:Y 84_1 7.9
2 84_1 *86:C 0
*END
*D_NET *87 0.00092304
*CONN
*I *88:Y O *D _32
*I *89:D I *L 0
*CAP
1 87_1 0.00092304
*RES
1 *88:Y 87_1 5.08
2 87_1 *89:D 0
*END
*D_NET *90 0.0005184
*CONN
*I *91:Y O *D _35
*I *92:C I *L 0
*CAP
1 90_1 0.0005184
*RES
1 *91:Y 90_1 3.6
2 90_1 *92:C 0
*END
*D_NET *93 0.00084384
*CONN
*I *94:Y O *D _36
*I *95:A I *L 0
*CAP
1 93_1 0.00084384
*RES
1 *94:Y 93_1 4.7
2 93_1 *95:A 0
*END
*D_NET *96 0.00041472
*CONN
*I *97:Y O *D _37
*I *98:C I *L 0
*CAP
1 96_1 0.00041472
*RES
1 *97:Y 96_1 2.88
2 96_1 *98:C 0
*END
*D_NET *99 0.0014184
*CONN
*I *100:Y O *D _38
*I *101:D I *L 0
*CAP
1 99_1 0.0014184
*RES
1 *100:Y 99_1 5.6
2 99_1 *101:D 0
*END
*D_NET *102 0.0008424
*CONN
*I *103:Y O *D _39
*I *104:A I *L 0
*CAP
1 102_1 0.0008424
*RES
1 *103:Y 102_1 4.86
2 102_1 *104:A 0
*END
*D_NET *105 0.0006264
*CONN
*I *106:Y O *D _40
*I *107:D I *L 0
*CAP
1 105_1 0.0006264
*RES
1 *106:Y 105_1 2.82
2 105_1 *107:D 0
*END
*D_NET *108 0.0005616
*CONN
*I *109:Y O *D _41
*I *110:D I *L 0
*CAP
1 108_1 0.0005616
*RES
1 *109:Y 108_1 2.88
2 108_1 *110:D 0
*END
*D_NET *111 0.00045792
*CONN
*I *112:Y O *D _42
*P *111 I
*CAP
1 111_1 0.00045792
*RES
1 *112:Y 111_1 3.18
2 111_1 *111 0
*END
*D_NET *113 0.0005184
*CONN
*I *114:Y O *D _47
*I *115:B I *L 0
*CAP
1 113_1 0.0005184
*RES
1 *114:Y 113_1 1.8
2 113_1 *115:B 0
*END
*D_NET *116 0.00085536
*CONN
*I *117:Y O *D _48
*I *118:C I *L 0
*CAP
1 116_1 0.00085536
*RES
1 *117:Y 116_1 3.42
2 116_1 *118:C 0
*END
*D_NET *119 0.0008064
*CONN
*I *120:Y O *D _49
*I *121:D I *L 0
*CAP
1 119_1 0.0008064
*RES
1 *120:Y 119_1 4.24
2 119_1 *121:D 0
*END
*D_NET *122 0.0002304
*CONN
*I *123:Y O *D _50
*I *124:B I *L 0
*CAP
1 122_1 0.0002304
*RES
1 *123:Y 122_1 0.92
2 122_1 *124:B 0
*END
*D_NET *125 0.000432
*CONN
*I *126:Y O *D _51
*I *127:C I *L 0
*CAP
1 125_1 0.000432
*RES
1 *126:Y 125_1 2.28
2 125_1 *127:C 0
*END
*D_NET *128 0.00072864
*CONN
*I *129:Y O *D _52
*I *130:D I *L 0
*CAP
1 128_1 0.00072864
*RES
1 *129:Y 128_1 3.7
2 128_1 *130:D 0
*END
